STAAD SPACE
START JOB INFORMATION
ENGINEER DATE 10-Jun-22
END JOB INFORMATION
INPUT WIDTH 79
UNIT INCHES KIP
JOINT COORDINATES
1 0 0 0; 2 120 0 0;
MEMBER INCIDENCES
1 1 2;
DEFINE MATERIAL START
ISOTROPIC CONCRETE
E 3150
POISSON 0.17
DENSITY 8.68e-05
ALPHA 5.5e-06
DAMP 0.05
G 1346.15
TYPE CONCRETE
STRENGTH FCU 4
END DEFINE MATERIAL
MEMBER PROPERTY
1 PRIS YD 10 ZD 10
CONSTANTS
MATERIAL CONCRETE ALL
SUPPORTS
1 2 FIXED
LOAD 1 LOADTYPE Dead  TITLE DD
UNIT FEET KIP
MEMBER LOAD
1 TRAP GY -12 -36
PERFORM ANALYSIS PRINT ALL
FINISH
