STAAD SPACE
START JOB INFORMATION
END JOB INFORMATION
INPUT WIDTH 79
UNIT MMS KN
JOINT COORDINATES
1 0 0 0; 2 22170 -2800.01 16600; 3 18270 -2800.01 16600;
4 18270 -2800.01 -16600; 5 22170 -2800.01 -16600; 6 -2800.01 5800.01 0;
7 18270 -2800.01 5800.01; 8 8200.02 -2800.01 5190.01;
9 8200.02 -2800.01 -5190.01; 10 18270 -2800.01 -5800.01;
11 5000.01 -1500 2650.01; 12 5000.01 -1500 -2650.01;
13 -22170 -2800.01 16600; 14 -18270 -2800.01 16600;
15 -18270 -2800.01 -16600; 16 -22170 -2800.01 -16600;
17 -18270 -2800.01 5800.01; 18 -8200.02 -2800.01 5190.01;
19 -8200.02 -2800.01 -5190.01; 20 -18270 -2800.01 -5800.01;
21 -5000.01 -1500 2650.01; 22 -5000.01 -1500 -2650.01;
23 5000.01 -1500 2250; 24 -5000.01 -1500 2250; 25 5000.01 -1500 0;
26 -5000.01 -1500 0; 27 5000.01 -1500 -2250; 28 -5000.01 -1500 -2250;
29 5000.01 5950.01 2250; 30 -5000.01 5950.01 2250; 31 5000.01 5950.01 0;
32 -5000.01 5950.01 0; 33 5000.01 5950.01 -2250;
34 -5000.01 5950.01 -2250; 35 -2850.01 5950.01 2250;
36 -2850.01 5950.01 -2250; 37 2250 5950.01 2250; 38 2250 5950.01 -2250;
39 -8200.02 4350.01 5190.01; 40 -5000.01 5650.01 2650.01;
41 -8200.02 4350.01 -5190.01; 42 8200.02 4350.01 5190.01;
43 8200.02 4350.01 -5190.01; 44 -12400 -2800.01 4926.01;
45 -8200.02 2500.01 5190.01; 46 -12400 2500.01 4926.01;
MEMBER INCIDENCES
8 24 23; 9 26 25; 10 28 27; 11 30 35; 12 32 31; 13 34 36; 17 34 30;
18 35 37; 19 36 38; 20 36 35; 21 33 29; 22 37 29; 23 38 33; 24 38 37;
27 40 39; 32 18 44; 33 45 46;
ELEMENT INCIDENCES SHELL
1 2 5 4 3; 2 7 8 9 10; 3 8 11 12 9; 4 13 16 15 14; 5 17 18 19 20;
6 18 21 22 19; 7 11 21 22 12; 14 23 29 30 24; 15 25 31 32 26;
16 27 33 34 28; 25 36 35 37 38; 28 24 30 39 18; 29 28 34 41 19;
30 23 29 42 8; 31 27 33 43 9; 34 39 46 44 18;
ELEMENT PROPERTY
1 TO 7 14 16 THICKNESS 800
15 THICKNESS 700
25 THICKNESS 500
28 TO 31 THICKNESS 600
DEFINE MATERIAL START
ISOTROPIC CONCRETE
E 21.7184
POISSON 0.17
DENSITY 2.35615e-08
ALPHA 5.5e-06
DAMP 0.05
TYPE CONCRETE
STRENGTH FCU 0.0275789
END DEFINE MATERIAL
CONSTANTS
MATERIAL CONCRETE MEMB 1 TO 7 14 TO 16 25 28 TO 31
FINISH
