STAAD SPACE
START JOB INFORMATION
ENGINEER DATE 31-Mar-22
END JOB INFORMATION
INPUT WIDTH 79
UNIT INCHES KIP
JOINT COORDINATES
1 0 75 0; 2 100 75 0; 3 200 0 0;
MEMBER INCIDENCES
1 1 2; 2 2 3;
DEFINE MATERIAL START
ISOTROPIC CONCRETE
E 3150
POISSON 0.17
DENSITY 8.68e-05
ALPHA 5.5e-06
DAMP 0.05
G 1346.15
TYPE CONCRETE
STRENGTH FCU 4
END DEFINE MATERIAL
MEMBER PROPERTY
1 2 PRIS AX 10 IZ 1000
CONSTANTS
MATERIAL CONCRETE ALL
SUPPORTS
1 3 FIXED
FINISH
