STAAD SPACE
START JOB INFORMATION
ENGINEER DATE 24-Aug-23
END JOB INFORMATION
INPUT WIDTH 79
UNIT MMS KG
JOINT COORDINATES
1 0 0 0; 2 1400 0 0; 3 1400 1700 0; 4 0 1700 0; 5 0 0 10000; 6 1400 0 10000;
7 1400 1700 10000; 8 0 1700 10000; 9 0 0 1000; 10 700.001 0 1000;
11 700.001 0 0; 12 0 0 2000; 13 700.001 0 2000; 14 0 0 3000.01;
15 700.001 0 3000.01; 16 0 0 4000.01; 17 700.001 0 4000.01; 18 0 0 5000.01;
19 700.001 0 5000.01; 20 0 0 6000.01; 21 700.001 0 6000.01; 22 0 0 7000.01;
23 700.001 0 7000.01; 24 0 0 8000.02; 25 700.002 0 8000.02; 26 0 0 9000.02;
27 700.001 0 9000.02; 28 700.001 0 10000; 29 1400 0 1000; 30 1400 0 2000;
31 1400 0 3000.01; 32 1400 0 4000.01; 33 1400 0 5000.01; 34 1400 0 6000.01;
35 1400 0 7000.01; 36 1400 0 8000.02; 37 1400 0 9000.02; 38 0 1700 1000;
39 700.001 1700 1000; 40 700.001 1700 0; 41 0 1700 2000; 42 700.001 1700 2000;
43 0 1700 3000.01; 44 700.001 1700 3000.01; 45 0 1700 4000.01;
46 700.001 1700 4000.01; 47 0 1700 5000.01; 48 700.001 1700 5000.01;
49 0 1700 6000.01; 50 700.001 1700 6000.01; 51 0 1700 7000.01;
52 700.001 1700 7000.01; 53 0 1700 8000.02; 54 700.002 1700 8000.02;
55 0 1700 9000.02; 56 700.001 1700 9000.02; 57 700.001 1700 10000;
58 1400 1700 1000; 59 1400 1700 2000; 60 1400 1700 3000.01;
61 1400 1700 4000.01; 62 1400 1700 5000.01; 63 1400 1700 6000.01;
64 1400 1700 7000.01; 65 1400 1700 8000.02; 66 1400 1700 9000.02;
67 0 566.668 0; 68 0 566.668 1000; 69 0 1133.34 0; 70 0 1133.34 1000;
71 0 566.668 2000; 72 0 1133.34 2000; 73 0 566.668 3000.01;
# ... 13 like lines cut
ELEMENT INCIDENCES SHELL
5 1 9 10 11; 6 9 12 13 10; 7 12 14 15 13; 8 14 16 17 15; 9 16 18 19 17;
10 18 20 21 19; 11 20 22 23 21; 12 22 24 25 23; 13 24 26 27 25; 14 26 5 28 27;
15 11 10 29 2; 16 10 13 30 29; 17 13 15 31 30; 18 15 17 32 31; 19 17 19 33 32;
20 19 21 34 33; 21 21 23 35 34; 22 23 25 36 35; 23 25 27 37 36; 24 27 28 6 37;
25 4 38 39 40; 26 38 41 42 39; 27 41 43 44 42; 28 43 45 46 44; 29 45 47 48 46;
30 47 49 50 48; 31 49 51 52 50; 32 51 53 54 52; 33 53 55 56 54; 34 55 8 57 56;
35 40 39 58 3; 36 39 42 59 58; 37 42 44 60 59; 38 44 46 61 60; 39 46 48 62 61;
40 48 50 63 62; 41 50 52 64 63; 42 52 54 65 64; 43 54 56 66 65; 44 56 57 7 66;
45 1 67 68 9; 46 67 69 70 68; 47 69 4 38 70; 48 9 68 71 12; 49 68 70 72 71;
50 70 38 41 72; 51 12 71 73 14; 52 71 72 74 73; 53 72 41 43 74; 54 14 73 75 16;
55 73 74 76 75; 56 74 43 45 76; 57 16 75 77 18; 58 75 76 78 77; 59 76 45 47 78;
60 18 77 79 20; 61 77 78 80 79; 62 78 47 49 80; 63 20 79 81 22; 64 79 80 82 81;
65 80 49 51 82; 66 22 81 83 24; 67 81 82 84 83; 68 82 51 53 84; 69 24 83 85 26;
70 83 84 86 85; 71 84 53 55 86; 72 26 85 87 5; 73 85 86 88 87; 74 86 55 8 88;
75 2 89 90 29; 76 89 91 92 90; 77 91 3 58 92; 78 29 90 93 30; 79 90 92 94 93;
80 92 58 59 94; 81 30 93 95 31; 82 93 94 96 95; 83 94 59 60 96; 84 31 95 97 32;
85 95 96 98 97; 86 96 60 61 98; 87 32 97 99 33; 88 97 98 100 99;
89 98 61 62 100; 90 33 99 101 34; 91 99 100 102 101; 92 100 62 63 102;
93 34 101 103 35; 94 101 102 104 103; 95 102 63 64 104; 96 35 103 105 36;
97 103 104 106 105; 98 104 64 65 106; 99 36 105 107 37; 100 105 106 108 107;
101 106 65 66 108; 102 37 107 109 6; 103 107 108 110 109; 104 108 66 7 110;
ELEMENT PROPERTY
5 TO 104 THICKNESS 500
DEFINE MATERIAL START
ISOTROPIC CONCRETE
E 2214.66
POISSON 0.17
DENSITY 2.4026e-06
ALPHA 5.5e-06
DAMP 0.05
TYPE CONCRETE
STRENGTH FCU 2.81227
END DEFINE MATERIAL
CONSTANTS
MATERIAL CONCRETE ALL
SUPPORTS
5 TO 24 PLATE MAT DIRECT Y SUBGRADE 10000 PRINT
UNIT METER KN
DEFINE REFERENCE LOADS
LOAD R1 LOADTYPE None  TITLE BP_L
ELEMENT LOAD
46 TRAP JT 46.6667 41.3333 41.3333 46.6667
47 TRAP JT 41.3333 36 36 41.3333
48 TRAP JT 52 46.6667 46.6667 52
49 TRAP JT 46.6667 41.3333 41.3333 46.6667
50 TRAP JT 41.3333 36 36 41.3333
51 TRAP JT 52 46.6667 46.6667 52
52 TRAP JT 46.6667 41.3333 41.3333 46.6667
53 TRAP JT 41.3333 36 36 41.3333
54 TRAP JT 52 46.6667 46.6667 52
55 TRAP JT 46.6667 41.3333 41.3333 46.6667
56 TRAP JT 41.3333 36 36 41.3333
57 TRAP JT 52 46.6667 46.6667 52
58 TRAP JT 46.6667 41.3333 41.3333 46.6667
59 TRAP JT 41.3333 36 36 41.3333
60 TRAP JT 52 46.6667 46.6667 52
61 TRAP JT 46.6667 41.3333 41.3333 46.6667
62 TRAP JT 41.3333 36 36 41.3333
63 TRAP JT 52 46.6667 46.6667 52
64 TRAP JT 46.6667 41.3333 41.3333 46.6667
65 TRAP JT 41.3333 36 36 41.3333
# ... 10 like lines cut
LOAD R2 LOADTYPE Fluids  TITLE BP_R
ELEMENT LOAD
76 TRAP JT -47 -42 -42 -47
77 TRAP JT -42 -37 -37 -42
78 TRAP JT -52 -47 -47 -52
79 TRAP JT -47 -42 -42 -47
80 TRAP JT -42 -37 -37 -42
81 TRAP JT -52 -47 -47 -52
82 TRAP JT -47 -42 -42 -47
83 TRAP JT -42 -37 -37 -42
84 TRAP JT -52 -47 -47 -52
85 TRAP JT -47 -42 -42 -47
86 TRAP JT -42 -37 -37 -42
87 TRAP JT -52 -47 -47 -52
88 TRAP JT -47 -42 -42 -47
89 TRAP JT -42 -37 -37 -42
90 TRAP JT -52 -47 -47 -52
91 TRAP JT -47 -42 -42 -47
92 TRAP JT -42 -37 -37 -42
93 TRAP JT -52 -47 -47 -52
94 TRAP JT -47 -42 -42 -47
95 TRAP JT -42 -37 -37 -42
# ... 10 like lines cut
END DEFINE REFERENCE LOADS
UNIT MMS KG
LOAD 1 LOADTYPE Dead  TITLE LOAD CASE 1
SELFWEIGHT Y -1 
LOAD 2 LOADTYPE Fluids  TITLE SOIL VERTICAL
UNIT MMS KN
ELEMENT LOAD
25 TO 44 PR GY -7e-05
5 TO 24 PR GY 7.2e-05
UNIT METER KN
LOAD 3 LOADTYPE Fluids  TITLE SOIL HORIZONTAL
REFERENCE LOAD
R1 1.0 R2 1.0 
UNIT MMS KG
LOAD COMB 4 COMBINATION LOAD CASE 4
1 1.0 2 1.0 3 1.0 
PERFORM ANALYSIS PRINT ALL
DEFINE ENVELOPE
1 TO 3 ENVELOPE 1 TYPE STRENGTH
END DEFINE ENVELOPE
FINISH
