STAAD SPACE
START JOB INFORMATION
END JOB INFORMATION
INPUT WIDTH 79
UNIT MMS KN
JOINT COORDINATES
1 5000.01 200 -700.001; 2 5000.01 -4150.01 -700.001;
3 18800 -4150.01 -700.001; 4 20300 -4150.01 -2200;
6 5000.01 200 700.001; 7 5000.01 -4150.01 700.001;
8 18800 -4150.01 700.001; 9 20300 -4150.01 2200;
11 -5000.01 200 -700.001; 12 -5000.01 -4150.01 -700.001;
13 -18800 -4150.01 -700.001; 14 -20300 -4150.01 -2200;
16 -5000.01 200 700.001; 17 -5000.01 -4150.01 700.001;
18 -18800 -4150.01 700.001; 19 -20300 -4150.01 2200;
25 18200 -4150.01 -2200; 26 18200 -4150.01 2200;
27 21500 -4150.01 -2200; 28 21500 -4150.01 2200;
29 -5000.01 5500.01 -700.001; 30 -5000.01 5500.01 700.001;
31 5000.01 5500.01 -700.001; 32 5000.01 5500.01 700.001;
33 12000 2000 -700.001; 34 12000 -4150.01 -700.001;
35 12000 2000 700.001; 36 12000 -4150.01 700.001;
37 -15500 2000 -700.001; 38 -15500 -4150.01 -700.001;
39 -15500 2000 700.001; 40 -15500 -4150.01 700.001;
41 5000.01 1900 -700.001; 42 5000.01 1900 700.001;
43 -5000.01 1900 -700.001; 44 -5000.01 1900 700.001;
46 -18800 2000 -700.001; 49 -18800 2000 700.001; 50 -20300 2000 -2200;
51 -20300 2000 2200; 52 18800 2000 -700.001; 53 18800 2000 700.001;
# ... 8 like lines cut
ELEMENT INCIDENCES SHELL
1 11 1 6 16; 2 13 12 17 18; 3 2 3 8 7; 4 12 11 16 17; 5 2 1 6 7;
7 26 25 27 28; 10 34 33 31 2; 11 36 35 32 7; 12 12 38 37 29;
13 17 40 39 30; 14 42 41 43 44; 15 44 16 6 42; 16 1 41 43 11;
17 44 30 29 43; 18 42 32 31 41; 20 38 13 46 37; 22 40 18 49 39;
23 13 14 50 46; 24 18 19 51 49; 25 34 3 52 33; 26 36 8 53 35;
27 8 9 54 53; 28 3 4 55 52; 29 51 57 56 19; 30 50 59 58 14;
31 54 61 60 9; 32 55 63 62 4; 33 66 67 65 64; 34 69 71 70 68;
ELEMENT PROPERTY
10 TO 13 17 18 20 22 TO 32 THICKNESS 800
1 TO 5 7 14 TO 16 33 34 THICKNESS 500
DEFINE MATERIAL START
ISOTROPIC CONCRETE
E 21.7184
POISSON 0.17
DENSITY 2.35615e-08
ALPHA 5.5e-06
DAMP 0.05
TYPE CONCRETE
STRENGTH FCU 0.0275789
END DEFINE MATERIAL
CONSTANTS
MATERIAL CONCRETE ALL
FINISH
