STAAD SPACE
START JOB INFORMATION
ENGINEER DATE 21-Jul-23
END JOB INFORMATION
INPUT WIDTH 79
UNIT MMS KN
JOINT COORDINATES
1 0 0 0; 2 553721 -71120.1 421641; 3 454661 -71120.1 421641;
4 454661 -71120.1 -421641; 5 553721 -71120.1 -421641; 6 454661 -71120.1 138633;
7 212090 -71120.1 79426; 8 212090 -71120.1 -79426; 9 454661 -71120.1 -138633;
10 143510 -43180.1 62687.3; 11 143510 -43180.1 -62687.3;
12 -553721 -71120.1 421641; 13 -454661 -71120.1 421641;
14 -454661 -71120.1 -421641; 15 -553721 -71120.1 -421641;
16 -454661 -71120.1 138633; 17 -212090 -71120.1 79426;
18 -212090 -71120.1 -79426; 19 -454661 -71120.1 -138633;
20 -143510 -43180.1 62687.3; 21 -143510 -43180.1 -62687.3;
22 515621 -71120.1 421641; 23 515621 -71120.1 139700; 24 515621 63500.1 421641;
25 515621 63500.1 139700; 26 456490 -71120.1 131217; 27 456490 63500.1 131217;
28 297739 -71120.1 92481.6; 29 297739 63500.1 92481.6;
30 213919 -71120.1 72009.1; 31 213919 105410 72009.1;
32 145339 -43180.1 55270.5; 33 145339 139700 55270.5;
34 515621 -71120.1 -421641; 35 515621 -71120.1 -139700;
36 515621 63500.1 -421641; 37 515621 63500.1 -139700;
38 456490 -71120.1 -131217; 39 456490 63500.1 -131217;
40 297739 -71120.1 -92481.6; 41 297739 63500.1 -92481.6;
42 213919 -71120.1 -72009.1; 43 213919 105410 -72009.1;
44 145339 -43180.1 -55270.5; 45 145339 139700 -55270.5;
# ... 15 like lines cut
MEMBER INCIDENCES
8 22 23; 9 24 25; 11 26 27; 13 28 29; 15 30 31; 35 71 70; 36 73 72; 38 74 75;
39 76 77;
ELEMENT INCIDENCES SHELL
1 3 2 5 4; 2 9 8 7 6; 3 8 11 10 7; 4 13 12 15 14; 5 19 18 17 16; 6 18 21 20 17;
7 11 21 20 10; 10 23 25 24 22; 12 23 26 27 25; 14 27 29 28 26; 16 28 30 31 29;
17 30 32 33 31; 18 35 37 36 34; 19 35 38 39 37; 20 39 41 40 38; 21 40 42 43 41;
22 42 44 45 43; 23 47 49 48 46; 24 51 53 52 50; 25 47 54 55 49; 26 51 56 57 53;
27 55 59 58 54; 28 57 61 60 56; 29 58 62 63 59; 30 60 64 65 61; 31 62 66 67 63;
32 64 68 69 65; 33 32 33 67 66; 34 44 45 69 68; 37 71 70 72 73; 40 74 76 77 75;
ELEMENT PROPERTY
1 TO 7 THICKNESS 700
10 12 14 16 TO 34 37 40 THICKNESS 500
DEFINE MATERIAL START
ISOTROPIC CONCRETE
E 21.7184
POISSON 0.17
DENSITY 2.35615e-08
ALPHA 5.5e-06
DAMP 0.05
TYPE CONCRETE
STRENGTH FCU 0.0275789
END DEFINE MATERIAL
CONSTANTS
MATERIAL CONCRETE MEMB 1 TO 7 10 12 14 16 TO 34 37 40
FINISH
