STAAD SPACE
START JOB INFORMATION
ENGINEER DATE 21-Jul-23
END JOB INFORMATION
INPUT WIDTH 79
UNIT MMS KN
JOINT COORDINATES
1 0 0 0; 2 21800 -2800 16601; 3 17901 -2800 16601; 4 17901 -2800 -16601;
5 21800 -2800 -16601; 6 17901 -2800 5458; 7 8350 -2800 3127;
8 8350 -2800 -3127; 9 17901 -2800 -5458; 10 5650 -1700 2468;
11 5650 -1700 -2468; 12 -21800 -2800 16601; 13 -17901 -2800 16601;
14 -17901 -2800 -16601; 15 -21800 -2800 -16601; 16 -17901 -2800 5458;
17 -8350 -2800 3127; 18 -8350 -2800 -3127; 19 -17901 -2800 -5458;
20 -5650 -1700 2468; 21 -5650 -1700 -2468; 22 20300 -2800 16601;
23 20300 -2800 5500; 24 20300 2500 16601; 25 20300 2500 5500;
26 17973 -2800 5167; 27 17973 2500 5167; 28 11722 -2800 3641;
29 11722 2500 3641; 30 8422 -2800 2835; 31 8422 4150 2835; 32 5722 -1700 2176;
33 5722 5500 2176; 34 20300 -2800 -16601; 35 20300 -2800 -5500;
36 20300 2500 -16601; 37 20300 2500 -5500; 38 17973 -2800 -5167;
39 17973 2500 -5167; 40 11722 -2800 -3641; 41 11722 2500 -3641;
42 8422 -2800 -2835; 43 8422 4150 -2835; 44 5722 -1700 -2176;
45 5722 5500 -2176; 46 -20300 -2800 16601; 47 -20300 -2800 5500;
48 -20300 2500 16601; 49 -20300 2500 5500; 50 -20300 -2800 -16601;
51 -20300 -2800 -5500; 52 -20300 2500 -16601; 53 -20300 2500 -5500;
54 -17973 -2800 5167; 55 -17973 2500 5167; 56 -17973 -2800 -5167;
57 -17973 2500 -5167; 58 -11722 -2800 3641; 59 -11722 2500 3641;
60 -11722 -2800 -3641; 61 -11722 2500 -3641; 62 -8422 -2800 2835;
# ... 461 like lines cut
MEMBER INCIDENCES
8 22 282; 9 24 285; 11 26 532; 13 28 537; 15 30 684; 35 71 991; 36 73 1049;
38 74 1269; 39 76 1276; 161 240 23; 165 245 25; 167 247 240; 171 250 245;
173 252 247; 177 255 250; 179 257 252; 183 260 255; 185 262 257; 189 265 260;
191 267 262; 195 270 265; 197 272 267; 201 275 270; 203 277 272; 207 280 275;
209 282 277; 213 285 280; 360 473 525; 363 476 518; 366 479 511; 369 482 500;
383 500 27; 389 509 29; 391 511 482; 397 516 509; 399 518 479; 405 523 516;
407 525 476; 413 530 523; 415 532 473; 421 537 530; 540 684 688; 545 688 692;
550 692 696; 555 696 700; 560 700 31; 836 991 994; 838 994 996; 840 996 998;
842 998 1000; 844 1000 1002; 846 1002 1004; 848 1004 1006; 850 1006 70;
889 1049 1282; 891 1050 1281; 893 1051 1280; 895 1052 1053; 897 1053 1279;
899 1054 1277; 901 1055 1278; 903 1056 72; 1082 1269 1278; 1087 1276 1282;
1089 1277 1055; 1090 1278 1056; 1091 1278 1284; 1093 1279 1054; 1095 1280 1052;
1097 1281 1051; 1099 1282 1050; 1100 1282 1288; 1102 1284 75; 1107 1288 77;
ELEMENT INCIDENCES SHELL
41 13 78 79 80; 42 78 81 82 79; 43 81 12 83 82; 44 80 79 84 85; 45 79 82 86 84;
46 82 83 87 86; 47 85 84 88 89; 48 84 86 90 88; 49 86 87 91 90; 50 89 88 92 93;
51 88 90 94 92; 52 90 91 95 94; 53 93 92 96 97; 54 92 94 98 96; 55 94 95 99 98;
56 97 96 100 101; 57 96 98 102 100; 58 98 99 103 102; 59 101 100 104 105;
60 100 102 106 104; 61 102 103 107 106; 62 105 104 108 109; 63 104 106 110 108;
64 106 107 111 110; 65 109 108 112 113; 66 108 110 114 112; 67 110 111 115 114;
68 113 112 116 117; 69 112 114 118 116; 70 114 115 119 118; 71 117 116 120 121;
72 116 118 122 120; 73 118 119 123 122; 74 121 120 124 125; 75 120 122 126 124;
76 122 123 127 126; 77 125 124 128 129; 78 124 126 130 128; 79 126 127 131 130;
80 129 128 132 133; 81 128 130 134 132; 82 130 131 135 134; 83 133 132 136 137;
84 132 134 138 136; 85 134 135 139 138; 86 137 136 140 141; 87 136 138 142 140;
88 138 139 143 142; 89 141 140 144 145; 90 140 142 146 144; 91 142 143 147 146;
92 145 144 148 149; 93 144 146 150 148; 94 146 147 151 150; 95 149 148 152 153;
96 148 150 154 152; 97 150 151 155 154; 98 153 152 156 14; 99 152 154 157 156;
100 154 155 15 157; 101 3 158 159 160; 102 158 161 162 159; 103 161 2 163 162;
104 160 159 164 165; 105 159 162 166 164; 106 162 163 167 166;
107 165 164 168 169; 108 164 166 170 168; 109 166 167 171 170;
110 169 168 172 173; 111 168 170 174 172; 112 170 171 175 174;
113 173 172 176 177; 114 172 174 178 176; 115 174 175 179 178;
116 177 176 180 181; 117 176 178 182 180; 118 178 179 183 182;
# ... 309 like lines cut
ELEMENT PROPERTY
41 TO 160 906 TO 1081 THICKNESS 700
162 TO 164 166 168 TO 170 172 174 TO 176 178 180 TO 182 184 186 TO 188 190 -
192 TO 194 196 198 TO 200 202 204 TO 206 208 210 TO 212 214 TO 359 361 362 -
364 365 367 368 370 TO 382 384 TO 388 390 392 TO 396 398 400 TO 404 406 408 -
409 TO 412 414 416 TO 420 422 TO 539 541 TO 544 546 TO 549 551 TO 554 556 -
557 TO 559 561 TO 835 837 839 841 843 845 847 849 851 TO 888 890 892 894 896 -
898 900 902 904 905 1083 TO 1086 1088 1092 1094 1096 1098 1101 1103 TO 1106 -
1108 TO 1113 THICKNESS 500
DEFINE MATERIAL START
ISOTROPIC CONCRETE
E 21.7184
POISSON 0.17
DENSITY 2.35615e-08
ALPHA 5.5e-06
DAMP 0.05
TYPE CONCRETE
STRENGTH FCU 0.0275789
END DEFINE MATERIAL
CONSTANTS
MATERIAL CONCRETE MEMB 41 TO 160 162 TO 164 166 168 TO 170 172 174 TO 176 -
178 180 TO 182 184 186 TO 188 190 192 TO 194 196 198 TO 200 202 204 TO 206 -
208 210 TO 212 214 TO 359 361 362 364 365 367 368 370 TO 382 384 TO 388 390 -
392 TO 396 398 400 TO 404 406 408 TO 412 414 416 TO 420 422 TO 539 -
541 TO 544 546 TO 549 551 TO 554 556 TO 559 561 TO 835 837 839 841 843 845 -
847 849 851 TO 888 890 892 894 896 898 900 902 904 TO 1081 1083 TO 1086 1088 -
1092 1094 1096 1098 1101 1103 TO 1106 1108 TO 1113
FINISH
