STAAD SPACE
START JOB INFORMATION
ENGINEER DATE 21-Jul-23
END JOB INFORMATION
INPUT WIDTH 79
UNIT MMS KN
JOINT COORDINATES
1 0 0 0; 2 22170 -2800.01 16600; 3 18270 -2800.01 16600;
4 18270 -2800.01 -16600; 5 22170 -2800.01 -16600; 6 -2800.01 5800.01 0;
7 18270 -2800.01 5800.01; 8 8200.02 -2800.01 5190.01;
9 8200.02 -2800.01 -5190.01; 10 18270 -2800.01 -5800.01;
11 5000.01 -1500 2650.01; 12 5000.01 -1500 -2650.01; 13 -22170 -2800.01 16600;
14 -18270 -2800.01 16600; 15 -18270 -2800.01 -16600; 16 -22170 -2800.01 -16600;
17 -18270 -2800.01 5800.01; 18 -8200.02 -2800.01 5190.01;
19 -8200.02 -2800.01 -5190.01; 20 -18270 -2800.01 -5800.01;
21 -5000.01 -1500 2650.01; 22 -5000.01 -1500 -2650.01; 23 5000.01 -1500 2250;
24 -5000.01 -1500 2250; 25 5000.01 -1500 0; 26 -5000.01 -1500 0;
27 5000.01 -1500 -2250; 28 -5000.01 -1500 -2250; 29 5000.01 5950.01 2250;
30 -5000.01 5950.01 2250; 31 5000.01 5950.01 0; 32 -5000.01 5950.01 0;
33 5000.01 5950.01 -2250; 34 -5000.01 5950.01 -2250; 35 -2850.01 5950.01 2250;
36 -2850.01 5950.01 -2250; 37 2250 5950.01 2250; 38 2250 5950.01 -2250;
39 -8200.02 4350.01 5190.01; 41 -8200.02 4350.01 -5190.01;
42 8200.02 4350.01 5190.01; 43 8200.02 4350.01 -5190.01;
44 -12400 -2800.01 4926.01; 46 -12400 2500.01 4926.01;
47 21046.1 -2800.01 15856.5; 48 21504.3 -2800.01 14946.3;
49 20063.7 -2800.01 16021.1; 50 22170 -2800.01 -3320; 51 22170 -2800.01 -6640;
52 18270 -2800.01 -6640; 53 18270 -2800.01 9960; 54 22170 -2800.01 13280;
# ... 853 like lines cut
ELEMENT INCIDENCES SHELL
35 47 48 49; 36 50 51 52; 37 53 54 55; 38 56 55 57; 39 58 59 60; 40 47 61 48;
41 48 2 54; 42 61 62 2; 43 60 63 64; 44 65 66 67; 45 65 4 68; 46 69 70 66;
47 69 68 60; 48 59 71 60; 49 60 64 5; 50 69 66 68; 51 72 69 71; 52 60 68 63;
53 64 63 73; 54 51 74 73; 55 74 64 73; 56 50 75 76; 57 51 73 52; 58 50 52 75;
59 77 76 78; 60 79 78 56; 61 53 55 56; 62 80 54 53; 63 81 82 80; 64 81 83 82;
65 49 82 83; 66 81 84 85; 67 48 54 82; 68 49 83 86; 69 49 48 82; 70 79 77 78;
71 77 50 76; 72 79 56 57; 73 81 85 83; 74 82 54 80; 75 61 2 48; 76 47 87 61;
77 68 4 63; 78 65 68 66; 79 69 60 71; 80 59 88 71; 81 83 89 86; 82 83 85 89;
83 49 90 91; 84 49 86 90; 85 81 3 84; 86 81 80 3; 87 61 87 62; 88 47 92 87;
89 47 91 92; 90 47 49 91; 91 66 70 67; 92 69 93 70; 93 65 94 4; 94 65 67 94;
95 72 71 95; 96 71 88 95; 97 58 96 88; 98 58 88 59; 99 69 97 93; 100 72 97 69;
101 72 98 97; 102 72 95 98; 103 58 5 96; 104 58 60 5; 105 99 100 101;
106 99 102 7; 107 103 104 105; 108 106 107 108; 109 109 110 111;
110 112 102 113; 111 114 101 115; 112 116 117 118; 113 119 116 118;
114 118 117 9; 115 120 121 122; 116 123 124 125; 117 126 127 128;
118 129 130 127; 119 131 132 133; 120 107 134 135; 121 136 135 137;
122 138 139 140; 123 141 142 139; 124 139 142 8; 125 143 144 145;
126 146 144 128; 127 147 129 148; 128 106 149 134; 129 150 151 152;
130 153 110 109; 131 154 155 156; 132 157 158 159; 133 160 156 161;
134 162 163 10; 135 164 159 165; 136 166 167 168; 137 169 170 171;
# ... 932 like lines cut
ELEMENT PROPERTY
35 TO 1432 1709 TO 1984 THICKNESS 800
1433 TO 1708 THICKNESS 700
1985 TO 2302 THICKNESS 500
2303 TO 3330 THICKNESS 600
DEFINE MATERIAL START
ISOTROPIC CONCRETE
E 21.7184
POISSON 0.17
DENSITY 2.35615e-08
ALPHA 5.5e-06
DAMP 0.05
TYPE CONCRETE
STRENGTH FCU 0.0275789
END DEFINE MATERIAL
CONSTANTS
MATERIAL CONCRETE MEMB 35 TO 3330
FINISH
