STAAD SPACE
START JOB INFORMATION
ENGINEER DATE 21-Jul-23
END JOB INFORMATION
INPUT WIDTH 79
UNIT MMS KN
JOINT COORDINATES
1 0 0 0; 2 21800 -2800 16601; 3 17901 -2800 16601; 4 17901 -2800 -16601;
5 21800 -2800 -16601; 6 17901 -2800 5458; 7 8350 -2800 3127;
8 8350 -2800 -3127; 9 17901 -2800 -5458; 10 5650 -1700 2468;
11 5650 -1700 -2468; 12 -21800 -2800 16601; 13 -17901 -2800 16601;
14 -17901 -2800 -16601; 15 -21800 -2800 -16601; 16 -17901 -2800 5458;
17 -8350 -2800 3127; 18 -8350 -2800 -3127; 19 -17901 -2800 -5458;
20 -5650 -1700 2468; 21 -5650 -1700 -2468; 22 20300 -2800 16601;
23 20300 -2800 5500; 24 20300 2500 16601; 25 20300 2500 5500;
26 17973 -2800 5167; 27 17973 2500 5167; 28 11722 -2800 3641;
29 11722 2500 3641; 30 8422 -2800 2835; 31 8422 4150 2835; 32 5722 -1700 2176;
33 5722 5500 2176; 34 20300 -2800 -16601; 35 20300 -2800 -5500;
36 20300 2500 -16601; 37 20300 2500 -5500; 38 17973 -2800 -5167;
39 17973 2500 -5167; 40 11722 -2800 -3641; 41 11722 2500 -3641;
42 8422 -2800 -2835; 43 8422 4150 -2835; 44 5722 -1700 -2176;
45 5722 5500 -2176; 46 -20300 -2800 16601; 47 -20300 -2800 5500;
48 -20300 2500 16601; 49 -20300 2500 5500; 50 -20300 -2800 -16601;
51 -20300 -2800 -5500; 52 -20300 2500 -16601; 53 -20300 2500 -5500;
54 -17973 -2800 5167; 55 -17973 2500 5167; 56 -17973 -2800 -5167;
57 -17973 2500 -5167; 58 -11722 -2800 3641; 59 -11722 2500 3641;
60 -11722 -2800 -3641; 61 -11722 2500 -3641; 62 -8422 -2800 2835;
# ... 5 like lines cut
MEMBER INCIDENCES
8 22 23; 9 24 25; 11 26 27; 13 28 29; 15 30 31; 35 71 70; 36 73 72; 38 74 75;
39 76 77;
ELEMENT INCIDENCES SHELL
1 3 2 5 4; 2 9 8 7 6; 3 8 11 10 7; 4 13 12 15 14; 5 19 18 17 16; 6 18 21 20 17;
7 11 21 20 10; 10 23 25 24 22; 12 23 26 27 25; 14 27 29 28 26; 16 28 30 31 29;
17 30 32 33 31; 18 35 37 36 34; 19 35 38 39 37; 20 39 41 40 38; 21 40 42 43 41;
22 42 44 45 43; 23 47 49 48 46; 24 51 53 52 50; 25 47 54 55 49; 26 51 56 57 53;
27 55 59 58 54; 28 57 61 60 56; 29 58 62 63 59; 30 60 64 65 61; 31 62 66 67 63;
32 64 68 69 65; 33 32 33 67 66; 34 44 45 69 68; 37 71 70 72 73; 40 74 76 77 75;
ELEMENT PROPERTY
1 TO 7 THICKNESS 700
10 12 14 16 TO 34 37 40 THICKNESS 500
DEFINE MATERIAL START
ISOTROPIC CONCRETE
E 21.7184
POISSON 0.17
DENSITY 2.35615e-08
ALPHA 5.5e-06
DAMP 0.05
TYPE CONCRETE
STRENGTH FCU 0.0275789
END DEFINE MATERIAL
CONSTANTS
MATERIAL CONCRETE MEMB 1 TO 7 10 12 14 16 TO 34 37 40
FINISH
